Version 4
SHEET 1 880 680
WIRE 384 112 352 112
WIRE 528 128 448 128
WIRE 560 128 528 128
WIRE -336 144 -336 96
WIRE -224 144 -224 96
WIRE 64 144 0 144
WIRE 96 144 64 144
WIRE 176 144 160 144
WIRE 192 144 176 144
WIRE 288 144 256 144
WIRE 384 144 288 144
WIRE 176 176 176 144
WIRE -336 256 -336 224
WIRE -288 256 -336 256
WIRE -336 272 -336 256
WIRE -288 288 -288 256
WIRE 80 288 32 288
WIRE 176 288 176 256
WIRE 176 288 160 288
WIRE 192 288 176 288
WIRE 352 288 352 112
WIRE 352 288 272 288
WIRE 528 288 528 128
WIRE 528 288 352 288
WIRE 176 304 176 288
WIRE 32 320 32 288
WIRE 64 416 64 144
WIRE 80 416 64 416
WIRE 176 416 176 368
WIRE 176 416 160 416
WIRE 192 416 176 416
WIRE 288 416 288 144
WIRE 288 416 272 416
FLAG 0 144 Vin
FLAG -224 224 0
FLAG -224 96 Vin
FLAG -336 96 Vcc
FLAG 416 96 Vcc
FLAG -336 272 0
FLAG -288 368 -Vcc
FLAG 416 160 -Vcc
FLAG 32 320 0
FLAG 560 128 Vout
SYMBOL voltage -224 128 R0
WINDOW 123 24 124 Left 2
WINDOW 39 0 0 Left 2
SYMATTR Value2 AC 1
SYMATTR InstName Vin
SYMATTR Value SINE(0 1 20)
SYMBOL Opamps\\RH1028 416 64 R0
SYMATTR InstName U1
SYMBOL voltage -336 128 R0
WINDOW 123 0 0 Left 2
WINDOW 39 0 0 Left 2
SYMATTR InstName V1
SYMATTR Value 5
SYMBOL voltage -288 272 R0
WINDOW 123 0 0 Left 2
WINDOW 39 0 0 Left 2
SYMATTR InstName V2
SYMATTR Value 5
SYMBOL cap 160 128 R90
WINDOW 0 0 32 VBottom 2
WINDOW 3 32 32 VTop 2
SYMATTR InstName C1
SYMATTR Value 680p
SYMBOL cap 256 128 R90
WINDOW 0 0 32 VBottom 2
WINDOW 3 32 32 VTop 2
SYMATTR InstName C2
SYMATTR Value 680p
SYMBOL res 160 160 R0
SYMATTR InstName R1
SYMATTR Value 1950k
SYMBOL res 288 272 R90
WINDOW 0 0 56 VBottom 2
WINDOW 3 32 56 VTop 2
SYMATTR InstName RQ1
SYMATTR Value 100
SYMBOL res 176 272 R90
WINDOW 0 0 56 VBottom 2
WINDOW 3 32 56 VTop 2
SYMATTR InstName RQ2
SYMATTR Value 220
SYMBOL cap 160 304 R0
SYMATTR InstName C3
SYMATTR Value 1360p
SYMBOL res 288 400 R90
WINDOW 0 0 56 VBottom 2
WINDOW 3 32 56 VTop 2
SYMATTR InstName R4
SYMATTR Value 3900k
SYMBOL res 176 400 R90
WINDOW 0 0 56 VBottom 2
WINDOW 3 32 56 VTop 2
SYMATTR InstName R5
SYMATTR Value 3900k
TEXT -184 432 Left 2 !.ac dec 100 1 100
TEXT -72 -40 Left 2 ;http://www.ti.com/lit/an/slyt235/slyt235.pdf
